archive/DSP/C2task3_powerflow2.dat
(POWERFLOW,CASEID=666,PROJECT=6BUS_TEST_SYSTEM)
/SOL_ITER,NEWTON=15,OPITM=0\
/P_INPUT_LIST,ZONES=ALL\
/P_OUTPUT_LIST,ZONES=ALL\
/RPT_SORT=ZONE\
/NEW_BASE,FILE=666.BSE\
/PF_MAP,FILE = 666.MAP\
/MVA_BASE =1230\ 
/NETWORK_DATA\
BS    #1      230                              999       1.0     
B     #2      230   207  108                                     
B     #3      230   315  171                                     
B     #4      230   225  76.5                                    
B     #5      230   360  175.5                                   
B     #6      230   0    0                0    0    
BQ    发电机  10.5                        753.3731.5     1.05    

.L -----------------  transmission lines ----------------------------
L     #1      230. #2      230.       .0188 .1074       .0047 
L     #2      230. #3      230.       .0107 .0609       .0027
L     #2      230. #4      230.       .0038 .0215       .0009
L     #4      230. #5      230.       .0031 .0179       .0008 
.L     #5      230  #6      230        .0151 .0859       .0038 
L     #3      230  #6      230        .0113 .0645       .0028 
   
.T ---------------------- transformers ------------------------------
T     发电机  10.5 #6      230.             .123              10.5 242. 
(END)     